29
fluorene with c2v symmetry
C                    0.00000000   -2.52900000   -0.71600000
C                    0.00000000   -1.18500000   -0.44300000
C                    0.00000000   -0.73700000    0.86200000
C                    0.00000000   -1.62800000    1.90900000
C                    0.00000000   -2.97500000    1.63200000
C                    0.00000000   -3.42000000    0.33200000
C                    0.00000000    2.52900000   -0.71600000
C                    0.00000000    3.42000000    0.33200000
C                    0.00000000    2.97500000    1.63200000
C                    0.00000000    1.62800000    1.90900000
C                    0.00000000    0.73700000    0.86200000
C                    0.00000000    1.18500000   -0.44300000
C                    0.00000000    0.00000000   -1.42100000
C                   -1.31100000    0.00000000   -2.25500000
C                    1.31100000    0.00000000   -2.25500000
H                    0.00000000   -2.88400000   -1.69700000
H                    0.00000000   -1.30100000    2.89700000
H                    0.00000000   -3.66300000    2.41400000
H                    0.00000000   -4.44600000    0.13800000
H                    0.00000000    2.88400000   -1.69700000
H                    0.00000000    4.44600000    0.13800000
H                    0.00000000    3.66300000    2.41400000
H                    0.00000000    1.30100000    2.89700000
H                   -1.45400000   -1.00100000   -2.69000000
H                   -2.14900000    0.00000000   -1.59000000
H                   -1.45400000    1.00100000   -2.69000000
H                    1.45400000    1.00100000   -2.69000000
H                    2.14900000    0.00000000   -1.59000000
H                    1.45400000   -1.00100000   -2.69000000
