5

 C         0.000005500808      0.000000000000      0.000000000000
 H         1.089043185505      0.000000000011     -0.000000000036
 H        -0.363012852403      1.026752113567     -0.000000166620
 H        -0.363012852417     -0.513376201096     -0.889193330414
 H        -0.363012852358     -0.513375912482      0.889193497069
