14
charge=0
 C         0.031139946704      0.053942349290      0.000000000000
 C         1.400383729496      0.017440643541      0.000000000000
 C         2.080715541692      1.213640428678      0.000000000000
 C         1.388302561202      2.404611678951      0.000000000000
 C         0.010684686314      2.408775825703      0.000000000000
 C        -0.685091147794      1.221492698289      0.000000000000
 N        -0.696846389736     -1.206963222503      0.000000000000
 H         1.925752165414     -0.931920459304      0.000000000000
 H         3.165707183767      1.213485436199      0.000000000000
 H         1.930899098706      3.344414424437      0.000000000000
 H        -0.531943612339      3.348329659999      0.000000000000
 H        -1.769946238990      1.201796607874      0.000000000000
 O        -0.969878762182     -1.679888035516     -1.066367750614
 O        -0.969878762182     -1.679888035516      1.066367750614
