14
charge=0
 C        -0.002154827311      0.214155585888     -0.228845017846
 C         1.103948852270     -0.187258614282      0.492026831527
 C         2.250528580638      0.574728766274      0.459703838580
 C         2.301108491523      1.730746784523     -0.284451989318
 C         1.191174075495      2.124951062704     -1.002122333738
 C         0.042760862570      1.372810985775     -0.977066245184
 N        -1.210528554189     -0.500228426375     -0.253441448572
 N        -1.261961365740     -1.523571315337      0.402555212054
 N        -1.402309249738     -2.470364940647      0.971302851665
 H         1.079488842824     -1.098052306661      1.084659260418
 H         3.118007010723      0.254698457110      1.028508188692
 H         3.207247755486      2.327210618669     -0.306207138827
 H         1.220874714264      3.035493942556     -1.592429514188
 H        -0.839295188817      1.667899399803     -1.535362495265
