12
charge=0
 C         0.006126201799      0.010688442490      0.000000000000
 C         1.383873794489      0.010688440347      0.000000000000
 C         2.072749667452      1.203776668853      0.000000000000
 C         1.383873798201      2.396864899502      0.000000000000
 C         0.006126205511      2.396864901646      0.000000000000
 C        -0.682749667452      1.203776673139      0.000000000000
 H        -0.536747211335     -0.929714878596      0.000000000000
 H         1.926747204697     -0.929714882428      0.000000000000
 H         3.158597465019      1.203776667164      0.000000000000
 H         1.926747211335      3.337268220588      0.000000000000
 H        -0.536747204697      3.337268224421      0.000000000000
 H        -1.768597465019      1.203776674829      0.000000000000
