6
charge=0
 O         1.293289838725      0.088402062760     -0.000000153617
 C        -0.017195497730     -0.029761879798     -0.000003069386
 O        -0.570062767682      1.164231084405     -0.000000153534
 O        -0.614564760479     -1.064320951746      0.000000266359
 H         1.670910254264     -0.798983290121      0.000001555085
 H        -1.527377067097      1.047462974500      0.000001555094
