9
charge=0
 C         1.411384801159      0.004992250512      0.000000000008
 O         0.026045520598      0.036751188305      0.000000000004
 C        -0.465734548781      1.332303195790     -0.000000000005
 H         1.723600622476     -1.038866630688     -0.000000000015
 H         1.823299155575      0.499028035720      0.890625364725
 H         1.823299155561      0.499028035741     -0.890625364703
 H        -1.553959489956      1.278766009853      0.000000000010
 H        -0.137302608326      1.885408957378     -0.890616884887
 H        -0.137302608305      1.885408957388      0.890616884863
