10
charge=0
 C         1.459611908453     -0.008585001989     -0.114868130754
 C        -0.011678749048      0.140934772112     -0.356548918259
 N         1.797356284640     -1.339083737569      0.298964136429
 O        -0.705668606371      0.957491714735      0.175065837837
 O        -0.480372009383     -0.716898238164     -1.248872035764
 H         1.741919044258      0.782900126482      0.587489796981
 H         1.953583882551      0.199580352815     -1.067515760063
 H         2.755036157736     -1.581913555102      0.098077195394
 H         1.608527882967     -1.504671574901      1.276899272695
 H        -1.429255795803     -0.557614858419     -1.341581394495
