10
charge=0
 N         0.015916213314      0.022990066117      0.000000000000
 C         1.371729047396      0.012868254535      0.000000000000
 C         1.799513358899      1.301664183581      0.000000000000
 C         0.652291284382      2.123281343943      0.000000000000
 C        -0.430168913813      1.303353823021      0.000000000000
 H        -0.569499562980     -0.794419005686      0.000000000000
 H         1.925428357741     -0.914929735954      0.000000000000
 H         2.830849089632      1.625513657887      0.000000000000
 H         0.626862435724      3.203967826224      0.000000000000
 H        -1.486831310295      1.528869586331      0.000000000000
