   13
charge=0
 C     1.449294     0.003322    -0.005796
 N     0.019676     0.027748    -0.048182
 H     1.808791    -1.027671     0.014923
 H     1.905184     0.506624    -0.877765
 H     1.808656     0.501299     0.897245
 C    -0.479889     1.367527    -0.005803
 C    -0.479961    -0.678747    -1.187240
 H    -1.571830    -0.694347    -1.172757
 H    -0.130350    -1.713249    -1.173039
 H    -0.157550    -0.222330    -2.140770
 H    -1.571751     1.362871     0.014579
 H    -0.157152     1.965290    -0.877622
 H    -0.130448     1.872282     0.897367
